CHEMBL303479
 OpenBabel12022418133D

 66 69  0  0  1  0  0  0  0  0999 V2000
    1.1909    0.9849    0.1364 C   0  0  0  0  0  0  0  0  0  0  0  0
   -0.0758    1.5744    0.2651 C   0  0  0  0  0  0  0  0  0  0  0  0
   -1.2593    0.8169    0.2154 C   0  0  0  0  0  0  0  0  0  0  0  0
   -1.1868   -0.5819    0.1257 C   0  0  0  0  0  0  0  0  0  0  0  0
    0.0904   -1.1544    0.1738 C   0  0  0  0  0  0  0  0  0  0  0  0
    1.2581   -0.4007    0.1266 C   0  0  0  0  0  0  0  0  0  0  0  0
    2.4093   -1.1356    0.0736 O   0  0  0  0  0  0  0  0  0  0  0  0
    3.6169   -0.4856    0.5087 C   0  0  0  0  0  0  0  0  0  0  0  0
    3.7246    0.9142   -0.1230 C   0  0  1  0  0  0  0  0  0  0  0  0
    2.4655    1.7835    0.0965 C   0  0  1  0  0  0  0  0  0  0  0  0
    2.5029    2.8733   -1.0020 C   0  0  0  0  0  0  0  0  0  0  0  0
    3.8256    3.6117   -0.9948 C   0  0  0  0  0  0  0  0  0  0  0  0
    4.9066    3.1210   -0.3563 C   0  0  0  0  0  0  0  0  0  0  0  0
    4.9303    1.7679    0.3147 C   0  0  0  0  0  0  0  0  0  0  0  0
    3.8636    4.9197   -1.7274 C   0  0  0  0  0  0  0  0  0  0  0  0
    4.7527   -1.3831   -0.0258 C   0  0  0  0  0  0  0  0  0  0  0  0
    3.6551   -0.5251    2.0403 C   0  0  0  0  0  0  0  0  0  0  0  0
   -2.4360   -1.4541    0.0675 C   0  0  1  0  0  0  0  0  0  0  0  0
   -3.7649   -0.6684   -0.1451 C   0  0  0  0  0  0  0  0  0  0  0  0
   -3.6133    0.7902   -0.5477 C   0  0  0  0  0  0  0  0  0  0  0  0
   -2.6013    1.4894    0.3384 C   0  0  0  0  0  0  0  0  0  0  0  0
   -2.3708   -2.6029   -0.9850 C   0  0  0  0  0  0  0  0  0  0  0  0
   -1.4365   -3.7994   -0.7128 C   0  0  0  0  0  0  0  0  0  0  0  0
   -1.5138   -4.3687    0.7104 C   0  0  0  0  0  0  0  0  0  0  0  0
   -2.8683   -5.0330    0.9300 C   0  0  0  0  0  0  0  0  0  0  0  0
   -3.0509   -5.5890    2.3350 C   0  0  0  0  0  0  0  0  0  0  0  0
   -4.3928   -6.3013    2.4204 C   0  0  0  0  0  0  0  0  0  0  0  0
   -0.2159    2.9227    0.4869 O   0  0  0  0  0  0  0  0  0  0  0  0
    0.2288   -2.2206    0.2747 H   0  0  0  0  0  0  0  0  0  0  0  0
    3.8159    0.7369   -1.2086 H   0  0  0  0  0  0  0  0  0  0  0  0
    2.5434    2.2591    1.0798 H   0  0  0  0  0  0  0  0  0  0  0  0
    1.6971    3.5974   -0.8571 H   0  0  0  0  0  0  0  0  0  0  0  0
    2.3470    2.4286   -1.9952 H   0  0  0  0  0  0  0  0  0  0  0  0
    5.8295    3.6955   -0.3272 H   0  0  0  0  0  0  0  0  0  0  0  0
    5.8696    1.2657    0.0651 H   0  0  0  0  0  0  0  0  0  0  0  0
    4.9212    1.9261    1.4002 H   0  0  0  0  0  0  0  0  0  0  0  0
    2.9146    5.1158   -2.2383 H   0  0  0  0  0  0  0  0  0  0  0  0
    4.6480    4.9109   -2.4905 H   0  0  0  0  0  0  0  0  0  0  0  0
    4.0435    5.7450   -1.0320 H   0  0  0  0  0  0  0  0  0  0  0  0
    4.7058   -1.4632   -1.1196 H   0  0  0  0  0  0  0  0  0  0  0  0
    4.6557   -2.4080    0.3530 H   0  0  0  0  0  0  0  0  0  0  0  0
    5.7434   -1.0120    0.2508 H   0  0  0  0  0  0  0  0  0  0  0  0
    2.8413    0.0586    2.4800 H   0  0  0  0  0  0  0  0  0  0  0  0
    4.6047   -0.1582    2.4387 H   0  0  0  0  0  0  0  0  0  0  0  0
    3.5148   -1.5551    2.3936 H   0  0  0  0  0  0  0  0  0  0  0  0
   -2.5377   -1.9011    1.0640 H   0  0  0  0  0  0  0  0  0  0  0  0
   -4.3305   -0.7035    0.7964 H   0  0  0  0  0  0  0  0  0  0  0  0
   -4.4129   -1.1610   -0.8806 H   0  0  0  0  0  0  0  0  0  0  0  0
   -4.5836    1.2945   -0.4649 H   0  0  0  0  0  0  0  0  0  0  0  0
   -3.3070    0.8569   -1.5990 H   0  0  0  0  0  0  0  0  0  0  0  0
   -2.5536    2.5417    0.0384 H   0  0  0  0  0  0  0  0  0  0  0  0
   -2.9152    1.4602    1.3892 H   0  0  0  0  0  0  0  0  0  0  0  0
   -2.1212   -2.1833   -1.9678 H   0  0  0  0  0  0  0  0  0  0  0  0
   -3.3763   -3.0298   -1.0937 H   0  0  0  0  0  0  0  0  0  0  0  0
   -0.4039   -3.5508   -0.9705 H   0  0  0  0  0  0  0  0  0  0  0  0
   -1.6893   -4.5966   -1.4237 H   0  0  0  0  0  0  0  0  0  0  0  0
   -1.3351   -3.5966    1.4666 H   0  0  0  0  0  0  0  0  0  0  0  0
   -0.7137   -5.1066    0.8458 H   0  0  0  0  0  0  0  0  0  0  0  0
   -2.9791   -5.8438    0.2001 H   0  0  0  0  0  0  0  0  0  0  0  0
   -3.6729   -4.3149    0.7375 H   0  0  0  0  0  0  0  0  0  0  0  0
   -3.0175   -4.7758    3.0702 H   0  0  0  0  0  0  0  0  0  0  0  0
   -2.2448   -6.2888    2.5789 H   0  0  0  0  0  0  0  0  0  0  0  0
   -5.2127   -5.6115    2.1908 H   0  0  0  0  0  0  0  0  0  0  0  0
   -4.5539   -6.7053    3.4220 H   0  0  0  0  0  0  0  0  0  0  0  0
   -4.4376   -7.1283    1.7027 H   0  0  0  0  0  0  0  0  0  0  0  0
    0.5656    3.2294    0.9700 H   0  0  0  0  0  0  0  0  0  0  0  0
  1  6  2  0  0  0  0
  1 10  1  0  0  0  0
  1  2  1  0  0  0  0
  2  3  2  0  0  0  0
  2 28  1  0  0  0  0
  3 21  1  0  0  0  0
  3  4  1  0  0  0  0
  4  5  2  0  0  0  0
  4 18  1  0  0  0  0
  5  6  1  0  0  0  0
  5 29  1  0  0  0  0
  6  7  1  0  0  0  0
  7  8  1  0  0  0  0
  8  9  1  0  0  0  0
  8 16  1  0  0  0  0
  8 17  1  0  0  0  0
  9 10  1  0  0  0  0
  9 14  1  0  0  0  0
  9 30  1  6  0  0  0
 10 11  1  0  0  0  0
 10 31  1  1  0  0  0
 11 12  1  0  0  0  0
 11 32  1  0  0  0  0
 11 33  1  0  0  0  0
 12 13  2  0  0  0  0
 12 15  1  0  0  0  0
 13 14  1  0  0  0  0
 13 34  1  0  0  0  0
 14 35  1  0  0  0  0
 14 36  1  0  0  0  0
 15 37  1  0  0  0  0
 15 38  1  0  0  0  0
 15 39  1  0  0  0  0
 16 40  1  0  0  0  0
 16 41  1  0  0  0  0
 16 42  1  0  0  0  0
 17 43  1  0  0  0  0
 17 44  1  0  0  0  0
 17 45  1  0  0  0  0
 18 19  1  0  0  0  0
 18 22  1  0  0  0  0
 18 46  1  1  0  0  0
 19 20  1  0  0  0  0
 19 47  1  0  0  0  0
 19 48  1  0  0  0  0
 20 21  1  0  0  0  0
 20 49  1  0  0  0  0
 20 50  1  0  0  0  0
 21 51  1  0  0  0  0
 21 52  1  0  0  0  0
 22 23  1  0  0  0  0
 22 53  1  0  0  0  0
 22 54  1  0  0  0  0
 23 24  1  0  0  0  0
 23 55  1  0  0  0  0
 23 56  1  0  0  0  0
 24 25  1  0  0  0  0
 24 57  1  0  0  0  0
 24 58  1  0  0  0  0
 25 26  1  0  0  0  0
 25 59  1  0  0  0  0
 25 60  1  0  0  0  0
 26 27  1  0  0  0  0
 26 61  1  0  0  0  0
 26 62  1  0  0  0  0
 27 63  1  0  0  0  0
 27 64  1  0  0  0  0
 27 65  1  0  0  0  0
 28 66  1  0  0  0  0
M  END
$$$$
CHEMBL559612	8GUR	best_smi
 OpenBabel12022418133D

 67 68  0  0  1  0  0  0  0  0999 V2000
    7.5653    9.2229   -7.4961 C   0  0  0  0  0  0  0  0  0  0  0  0
    6.9918    7.8444   -7.2034 C   0  0  0  0  0  0  0  0  0  0  0  0
    7.3438    7.4031   -5.7866 C   0  0  0  0  0  0  0  0  0  0  0  0
    6.7749    6.0233   -5.4474 C   0  0  0  0  0  0  0  0  0  0  0  0
    7.1461    5.6634   -4.0101 C   0  0  0  0  0  0  0  0  0  0  0  0
    6.6057    4.2920   -3.5790 C   0  0  0  0  0  0  0  0  0  0  0  0
    7.0370    3.8749   -2.1368 C   0  0  0  0  0  0  0  0  0  0  0  0
    6.3815    4.8266   -1.1054 C   0  0  0  0  0  0  0  0  0  0  0  0
    6.4720    2.4659   -1.8330 C   0  0  0  0  0  0  0  0  0  0  0  0
    8.5732    3.8527   -2.0586 C   0  0  0  0  0  0  0  0  0  0  0  0
    9.3135    2.9620   -2.8496 C   0  0  0  0  0  0  0  0  0  0  0  0
   10.7109    2.9736   -2.8390 C   0  0  0  0  0  0  0  0  0  0  0  0
   11.4352    3.8789   -2.0396 C   0  0  0  0  0  0  0  0  0  0  0  0
   12.9535    3.7651   -1.9821 C   0  0  2  0  0  0  0  0  0  0  0  0
   13.5137    4.0959   -3.3820 C   0  0  0  0  0  0  0  0  0  0  0  0
   15.0265    3.9454   -3.4528 C   0  0  2  0  0  0  0  0  0  0  0  0
   15.4741    4.2131   -4.7752 O   0  0  0  0  0  0  0  0  0  0  0  0
   15.4372    2.5404   -3.0430 C   0  0  0  0  0  0  0  0  0  0  0  0
   14.9807    2.2365   -1.6222 C   0  0  0  0  0  0  0  0  0  0  0  0
   13.4533    2.3875   -1.4228 C   0  0  1  0  0  0  0  0  0  0  0  0
   13.1542    2.1677    0.0952 C   0  0  0  0  0  0  0  0  0  0  0  0
   11.6772    2.0234    0.4607 C   0  0  0  0  0  0  0  0  0  0  0  0
   11.4104    1.8414    1.9466 C   0  0  0  0  0  0  0  0  0  0  0  0
   10.0032    1.8712    2.1757 O   0  0  0  0  0  0  0  0  0  0  0  0
   10.6938    4.7864   -1.2719 C   0  0  0  0  0  0  0  0  0  0  0  0
   11.2385    5.6904   -0.4036 O   0  0  0  0  0  0  0  0  0  0  0  0
    9.2958    4.7604   -1.2716 C   0  0  0  0  0  0  0  0  0  0  0  0
    7.3068    9.5378   -8.5113 H   0  0  0  0  0  0  0  0  0  0  0  0
    8.6568    9.2195   -7.4081 H   0  0  0  0  0  0  0  0  0  0  0  0
    7.1684    9.9674   -6.7976 H   0  0  0  0  0  0  0  0  0  0  0  0
    7.3873    7.1247   -7.9292 H   0  0  0  0  0  0  0  0  0  0  0  0
    5.9034    7.8701   -7.3264 H   0  0  0  0  0  0  0  0  0  0  0  0
    6.9603    8.1411   -5.0707 H   0  0  0  0  0  0  0  0  0  0  0  0
    8.4352    7.3854   -5.6717 H   0  0  0  0  0  0  0  0  0  0  0  0
    7.1780    5.2731   -6.1389 H   0  0  0  0  0  0  0  0  0  0  0  0
    5.6853    6.0262   -5.5619 H   0  0  0  0  0  0  0  0  0  0  0  0
    6.7598    6.4418   -3.3439 H   0  0  0  0  0  0  0  0  0  0  0  0
    8.2389    5.6822   -3.9295 H   0  0  0  0  0  0  0  0  0  0  0  0
    6.9412    3.5376   -4.3035 H   0  0  0  0  0  0  0  0  0  0  0  0
    5.5098    4.3032   -3.6430 H   0  0  0  0  0  0  0  0  0  0  0  0
    5.2902    4.8031   -1.1834 H   0  0  0  0  0  0  0  0  0  0  0  0
    6.6899    5.8689   -1.2396 H   0  0  0  0  0  0  0  0  0  0  0  0
    6.6445    4.5399   -0.0794 H   0  0  0  0  0  0  0  0  0  0  0  0
    5.3754    2.4784   -1.8088 H   0  0  0  0  0  0  0  0  0  0  0  0
    6.8213    2.1017   -0.8591 H   0  0  0  0  0  0  0  0  0  0  0  0
    6.7638    1.7263   -2.5857 H   0  0  0  0  0  0  0  0  0  0  0  0
    8.8125    2.2471   -3.4975 H   0  0  0  0  0  0  0  0  0  0  0  0
   11.2288    2.2424   -3.4569 H   0  0  0  0  0  0  0  0  0  0  0  0
   13.3685    4.5262   -1.3142 H   0  0  0  0  0  0  0  0  0  0  0  0
   13.2376    5.1212   -3.6645 H   0  0  0  0  0  0  0  0  0  0  0  0
   13.0620    3.4600   -4.1560 H   0  0  0  0  0  0  0  0  0  0  0  0
   15.5078    4.6809   -2.7938 H   0  0  0  0  0  0  0  0  0  0  0  0
   15.0351    3.5902   -5.3805 H   0  0  0  0  0  0  0  0  0  0  0  0
   16.5257    2.4371   -3.1219 H   0  0  0  0  0  0  0  0  0  0  0  0
   15.0167    1.8062   -3.7420 H   0  0  0  0  0  0  0  0  0  0  0  0
   15.5107    2.9049   -0.9312 H   0  0  0  0  0  0  0  0  0  0  0  0
   15.2855    1.2147   -1.3662 H   0  0  0  0  0  0  0  0  0  0  0  0
   12.9753    1.5729   -1.9822 H   0  0  0  0  0  0  0  0  0  0  0  0
   13.6682    1.2552    0.4247 H   0  0  0  0  0  0  0  0  0  0  0  0
   13.5920    2.9942    0.6696 H   0  0  0  0  0  0  0  0  0  0  0  0
   11.2145    1.2089   -0.1078 H   0  0  0  0  0  0  0  0  0  0  0  0
   11.1380    2.9226    0.1978 H   0  0  0  0  0  0  0  0  0  0  0  0
   11.8626    2.6463    2.5338 H   0  0  0  0  0  0  0  0  0  0  0  0
   11.7937    0.8846    2.3055 H   0  0  0  0  0  0  0  0  0  0  0  0
    9.6548    2.6843    1.7630 H   0  0  0  0  0  0  0  0  0  0  0  0
   12.2033    5.6617   -0.4379 H   0  0  0  0  0  0  0  0  0  0  0  0
    8.7914    5.4735   -0.6264 H   0  0  0  0  0  0  0  0  0  0  0  0
  1  2  1  0  0  0  0
  1 28  1  0  0  0  0
  1 29  1  0  0  0  0
  1 30  1  0  0  0  0
  2  3  1  0  0  0  0
  2 31  1  0  0  0  0
  2 32  1  0  0  0  0
  3  4  1  0  0  0  0
  3 33  1  0  0  0  0
  3 34  1  0  0  0  0
  4  5  1  0  0  0  0
  4 35  1  0  0  0  0
  4 36  1  0  0  0  0
  5  6  1  0  0  0  0
  5 37  1  0  0  0  0
  5 38  1  0  0  0  0
  6  7  1  0  0  0  0
  6 39  1  0  0  0  0
  6 40  1  0  0  0  0
  7  8  1  0  0  0  0
  7  9  1  0  0  0  0
  7 10  1  0  0  0  0
  8 41  1  0  0  0  0
  8 42  1  0  0  0  0
  8 43  1  0  0  0  0
  9 44  1  0  0  0  0
  9 45  1  0  0  0  0
  9 46  1  0  0  0  0
 10 27  2  0  0  0  0
 10 11  1  0  0  0  0
 11 12  2  0  0  0  0
 11 47  1  0  0  0  0
 12 13  1  0  0  0  0
 12 48  1  0  0  0  0
 13 25  2  0  0  0  0
 14 13  1  0  0  0  0
 14 15  1  0  0  0  0
 14 20  1  0  0  0  0
 14 49  1  1  0  0  0
 15 16  1  0  0  0  0
 15 50  1  0  0  0  0
 15 51  1  0  0  0  0
 16 17  1  0  0  0  0
 16 18  1  0  0  0  0
 16 52  1  1  0  0  0
 17 53  1  0  0  0  0
 18 19  1  0  0  0  0
 18 54  1  0  0  0  0
 18 55  1  0  0  0  0
 19 20  1  0  0  0  0
 19 56  1  0  0  0  0
 19 57  1  0  0  0  0
 20 21  1  0  0  0  0
 20 58  1  6  0  0  0
 21 22  1  0  0  0  0
 21 59  1  0  0  0  0
 21 60  1  0  0  0  0
 22 23  1  0  0  0  0
 22 61  1  0  0  0  0
 22 62  1  0  0  0  0
 23 24  1  0  0  0  0
 23 63  1  0  0  0  0
 23 64  1  0  0  0  0
 24 65  1  0  0  0  0
 25 26  1  0  0  0  0
 25 27  1  0  0  0  0
 26 66  1  0  0  0  0
 27 67  1  0  0  0  0
M  END
$$$$
CHEMBL4102975	8GUR	best_smi
 OpenBabel12022418133D

 61 62  0  0  1  0  0  0  0  0999 V2000
    5.0069   -0.5537    2.2232 C   0  0  0  0  0  0  0  0  0  0  0  0
    4.5266    0.5998    1.3539 C   0  0  0  0  0  0  0  0  0  0  0  0
    4.9950    0.4031   -0.0846 C   0  0  0  0  0  0  0  0  0  0  0  0
    4.5359    1.5352   -1.0164 C   0  0  0  0  0  0  0  0  0  0  0  0
    5.0512    1.3875   -2.4818 C   0  0  0  0  0  0  0  0  0  0  0  0
    4.3983    0.1452   -3.1363 C   0  0  0  0  0  0  0  0  0  0  0  0
    4.5693    2.6041   -3.3114 C   0  0  0  0  0  0  0  0  0  0  0  0
    6.5890    1.3422   -2.4836 C   0  0  0  0  0  0  0  0  0  0  0  0
    7.3319    2.4481   -2.0447 C   0  0  0  0  0  0  0  0  0  0  0  0
    8.7299    2.4218   -2.0353 C   0  0  0  0  0  0  0  0  0  0  0  0
    9.4474    1.2877   -2.4614 C   0  0  0  0  0  0  0  0  0  0  0  0
   10.9640    1.3678   -2.5628 C   0  0  2  0  0  0  0  0  0  0  0  0
   11.5349    1.5590   -1.1419 C   0  0  0  0  0  0  0  0  0  0  0  0
   13.0510    1.6847   -1.1443 C   0  0  2  0  0  0  0  0  0  0  0  0
   13.5157    1.9103    0.1815 O   0  0  0  0  0  0  0  0  0  0  0  0
   13.4868    2.8315   -2.0447 C   0  0  0  0  0  0  0  0  0  0  0  0
   12.9987    2.6211   -3.4730 C   0  0  0  0  0  0  0  0  0  0  0  0
   11.4635    2.4549   -3.5773 C   0  0  1  0  0  0  0  0  0  0  0  0
   11.1208    2.1514   -5.0722 C   0  0  0  0  0  0  0  0  0  0  0  0
    9.6357    2.2231   -5.4354 C   0  0  0  0  0  0  0  0  0  0  0  0
    9.3256    1.8742   -6.8846 C   0  0  0  0  0  0  0  0  0  0  0  0
    7.9041    1.8125   -7.0547 O   0  0  0  0  0  0  0  0  0  0  0  0
    8.7024    0.1670   -2.8490 C   0  0  0  0  0  0  0  0  0  0  0  0
    9.2421   -0.9931   -3.3283 O   0  0  0  0  0  0  0  0  0  0  0  0
    7.3048    0.1993   -2.8644 C   0  0  0  0  0  0  0  0  0  0  0  0
    4.6658   -0.4262    3.2544 H   0  0  0  0  0  0  0  0  0  0  0  0
    6.1005   -0.6087    2.2287 H   0  0  0  0  0  0  0  0  0  0  0  0
    4.6218   -1.5086    1.8502 H   0  0  0  0  0  0  0  0  0  0  0  0
    4.9189    1.5428    1.7524 H   0  0  0  0  0  0  0  0  0  0  0  0
    3.4327    0.6550    1.3899 H   0  0  0  0  0  0  0  0  0  0  0  0
    4.6156   -0.5570   -0.4489 H   0  0  0  0  0  0  0  0  0  0  0  0
    6.0888    0.3370   -0.0808 H   0  0  0  0  0  0  0  0  0  0  0  0
    4.8694    2.4933   -0.5956 H   0  0  0  0  0  0  0  0  0  0  0  0
    3.4385    1.5744   -1.0184 H   0  0  0  0  0  0  0  0  0  0  0  0
    3.3054    0.2264   -3.1348 H   0  0  0  0  0  0  0  0  0  0  0  0
    4.6506   -0.7855   -2.6183 H   0  0  0  0  0  0  0  0  0  0  0  0
    4.7167    0.0338   -4.1801 H   0  0  0  0  0  0  0  0  0  0  0  0
    3.4764    2.6136   -3.3999 H   0  0  0  0  0  0  0  0  0  0  0  0
    4.9840    2.5779   -4.3267 H   0  0  0  0  0  0  0  0  0  0  0  0
    4.8604    3.5594   -2.8622 H   0  0  0  0  0  0  0  0  0  0  0  0
    6.8345    3.3553   -1.7072 H   0  0  0  0  0  0  0  0  0  0  0  0
    9.2515    3.3220   -1.7167 H   0  0  0  0  0  0  0  0  0  0  0  0
   11.3720    0.4159   -2.9158 H   0  0  0  0  0  0  0  0  0  0  0  0
   11.2424    0.7155   -0.5014 H   0  0  0  0  0  0  0  0  0  0  0  0
   11.1085    2.4457   -0.6548 H   0  0  0  0  0  0  0  0  0  0  0  0
   13.5015    0.7468   -1.4886 H   0  0  0  0  0  0  0  0  0  0  0  0
   13.0921    2.7173    0.5209 H   0  0  0  0  0  0  0  0  0  0  0  0
   14.5798    2.9183   -2.0278 H   0  0  0  0  0  0  0  0  0  0  0  0
   13.1065    3.7834   -1.6522 H   0  0  0  0  0  0  0  0  0  0  0  0
   13.4937    1.7337   -3.8890 H   0  0  0  0  0  0  0  0  0  0  0  0
   13.3188    3.4742   -4.0836 H   0  0  0  0  0  0  0  0  0  0  0  0
   11.0165    3.4244   -3.3204 H   0  0  0  0  0  0  0  0  0  0  0  0
   11.6497    2.8725   -5.7065 H   0  0  0  0  0  0  0  0  0  0  0  0
   11.5125    1.1599   -5.3347 H   0  0  0  0  0  0  0  0  0  0  0  0
    9.2254    3.2094   -5.1915 H   0  0  0  0  0  0  0  0  0  0  0  0
    9.0691    1.5084   -4.8541 H   0  0  0  0  0  0  0  0  0  0  0  0
    9.7364    0.8964   -7.1542 H   0  0  0  0  0  0  0  0  0  0  0  0
    9.7190    2.6257   -7.5687 H   0  0  0  0  0  0  0  0  0  0  0  0
    7.5461    1.2070   -6.3775 H   0  0  0  0  0  0  0  0  0  0  0  0
   10.1947   -0.8996   -3.4587 H   0  0  0  0  0  0  0  0  0  0  0  0
    6.7955   -0.6970   -3.2068 H   0  0  0  0  0  0  0  0  0  0  0  0
  1  2  1  0  0  0  0
  1 26  1  0  0  0  0
  1 27  1  0  0  0  0
  1 28  1  0  0  0  0
  2  3  1  0  0  0  0
  2 29  1  0  0  0  0
  2 30  1  0  0  0  0
  3  4  1  0  0  0  0
  3 31  1  0  0  0  0
  3 32  1  0  0  0  0
  4  5  1  0  0  0  0
  4 33  1  0  0  0  0
  4 34  1  0  0  0  0
  5  6  1  0  0  0  0
  5  7  1  0  0  0  0
  5  8  1  0  0  0  0
  6 35  1  0  0  0  0
  6 36  1  0  0  0  0
  6 37  1  0  0  0  0
  7 38  1  0  0  0  0
  7 39  1  0  0  0  0
  7 40  1  0  0  0  0
  8 25  2  0  0  0  0
  8  9  1  0  0  0  0
  9 10  2  0  0  0  0
  9 41  1  0  0  0  0
 10 11  1  0  0  0  0
 10 42  1  0  0  0  0
 11 23  2  0  0  0  0
 12 11  1  0  0  0  0
 12 13  1  0  0  0  0
 12 18  1  0  0  0  0
 12 43  1  6  0  0  0
 13 14  1  0  0  0  0
 13 44  1  0  0  0  0
 13 45  1  0  0  0  0
 14 15  1  0  0  0  0
 14 16  1  0  0  0  0
 14 46  1  6  0  0  0
 15 47  1  0  0  0  0
 16 17  1  0  0  0  0
 16 48  1  0  0  0  0
 16 49  1  0  0  0  0
 17 18  1  0  0  0  0
 17 50  1  0  0  0  0
 17 51  1  0  0  0  0
 18 19  1  0  0  0  0
 18 52  1  1  0  0  0
 19 20  1  0  0  0  0
 19 53  1  0  0  0  0
 19 54  1  0  0  0  0
 20 21  1  0  0  0  0
 20 55  1  0  0  0  0
 20 56  1  0  0  0  0
 21 22  1  0  0  0  0
 21 57  1  0  0  0  0
 21 58  1  0  0  0  0
 22 59  1  0  0  0  0
 23 24  1  0  0  0  0
 23 25  1  0  0  0  0
 24 60  1  0  0  0  0
 25 61  1  0  0  0  0
M  END
$$$$
CHEMBL77520	8GUR	best_smi
 OpenBabel12022418133D

 67 68  0  0  1  0  0  0  0  0999 V2000
    7.8372    1.0482   11.5961 C   0  0  0  0  0  0  0  0  0  0  0  0
    7.2532    1.9041   10.4837 C   0  0  0  0  0  0  0  0  0  0  0  0
    7.5251    1.2703    9.1246 C   0  0  0  0  0  0  0  0  0  0  0  0
    6.9475    2.1025    7.9814 C   0  0  0  0  0  0  0  0  0  0  0  0
    7.2395    1.4154    6.6496 C   0  0  0  0  0  0  0  0  0  0  0  0
    6.6685    2.2004    5.4597 C   0  0  0  0  0  0  0  0  0  0  0  0
    6.9671    1.5547    4.0692 C   0  0  0  0  0  0  0  0  0  0  0  0
    6.2847    0.1664    3.9879 C   0  0  0  0  0  0  0  0  0  0  0  0
    6.3237    2.4187    2.9609 C   0  0  0  0  0  0  0  0  0  0  0  0
    8.4859    1.4955    3.8466 C   0  0  0  0  0  0  0  0  0  0  0  0
    9.2693    2.6597    3.8530 C   0  0  0  0  0  0  0  0  0  0  0  0
   10.6667    2.5895    3.8005 C   0  0  0  0  0  0  0  0  0  0  0  0
   11.3417    1.3516    3.7467 C   0  0  0  0  0  0  0  0  0  0  0  0
   12.8567    1.3042    3.8774 C   0  0  3  0  0  0  0  0  0  0  0  0
   13.3581    2.2159    5.0206 C   0  0  0  0  0  0  0  0  0  0  0  0
   14.8669    2.1240    5.2215 C   0  0  3  0  0  0  0  0  0  0  0  0
   15.2748    3.0822    6.1904 O   0  0  0  0  0  0  0  0  0  0  0  0
   15.6064    2.3663    3.9136 C   0  0  0  0  0  0  0  0  0  0  0  0
   15.1673    1.3617    2.8516 C   0  0  0  0  0  0  0  0  0  0  0  0
   13.6557    1.4446    2.5471 C   0  0  3  0  0  0  0  0  0  0  0  0
   13.3317    2.6972    1.6850 C   0  0  0  0  0  0  0  0  0  0  0  0
   14.0884    2.7718    0.3437 C   0  0  0  0  0  0  0  0  0  0  0  0
   13.8452    1.5734   -0.5768 C   0  0  0  0  0  0  0  0  0  0  0  0
   14.6298    1.6747   -1.7595 O   0  0  0  0  0  0  0  0  0  0  0  0
   10.5509    0.2063    3.6435 C   0  0  0  0  0  0  0  0  0  0  0  0
   11.0387   -1.0647    3.5167 O   0  0  0  0  0  0  0  0  0  0  0  0
    9.1583    0.2754    3.6981 C   0  0  0  0  0  0  0  0  0  0  0  0
    7.6420    1.5015   12.5719 H   0  0  0  0  0  0  0  0  0  0  0  0
    8.9208    0.9431   11.4777 H   0  0  0  0  0  0  0  0  0  0  0  0
    7.3949    0.0464   11.5893 H   0  0  0  0  0  0  0  0  0  0  0  0
    7.6939    2.9064   10.5239 H   0  0  0  0  0  0  0  0  0  0  0  0
    6.1738    2.0140   10.6361 H   0  0  0  0  0  0  0  0  0  0  0  0
    7.0911    0.2626    9.0977 H   0  0  0  0  0  0  0  0  0  0  0  0
    8.6071    1.1560    8.9828 H   0  0  0  0  0  0  0  0  0  0  0  0
    7.3872    3.1068    7.9889 H   0  0  0  0  0  0  0  0  0  0  0  0
    5.8647    2.2157    8.1105 H   0  0  0  0  0  0  0  0  0  0  0  0
    6.8103    0.4088    6.6810 H   0  0  0  0  0  0  0  0  0  0  0  0
    8.3251    1.2998    6.5455 H   0  0  0  0  0  0  0  0  0  0  0  0
    7.0687    3.2218    5.4965 H   0  0  0  0  0  0  0  0  0  0  0  0
    5.5837    2.2987    5.5904 H   0  0  0  0  0  0  0  0  0  0  0  0
    5.1967    0.2470    4.0845 H   0  0  0  0  0  0  0  0  0  0  0  0
    6.6292   -0.5173    4.7710 H   0  0  0  0  0  0  0  0  0  0  0  0
    6.4892   -0.3211    3.0250 H   0  0  0  0  0  0  0  0  0  0  0  0
    5.2299    2.4019    3.0344 H   0  0  0  0  0  0  0  0  0  0  0  0
    6.5943    2.0423    1.9659 H   0  0  0  0  0  0  0  0  0  0  0  0
    6.6349    3.4659    3.0147 H   0  0  0  0  0  0  0  0  0  0  0  0
    8.8076    3.6415    3.9361 H   0  0  0  0  0  0  0  0  0  0  0  0
   11.2135    3.5235    3.8291 H   0  0  0  0  0  0  0  0  0  0  0  0
   13.1069    0.2993    4.2443 H   0  0  0  0  0  0  0  0  0  0  0  0
   12.8613    1.9387    5.9617 H   0  0  0  0  0  0  0  0  0  0  0  0
   13.0888    3.2636    4.8513 H   0  0  0  0  0  0  0  0  0  0  0  0
   15.1288    1.1350    5.6163 H   0  0  0  0  0  0  0  0  0  0  0  0
   14.9723    3.9590    5.8984 H   0  0  0  0  0  0  0  0  0  0  0  0
   16.6875    2.2888    4.0806 H   0  0  0  0  0  0  0  0  0  0  0  0
   15.4354    3.3947    3.5713 H   0  0  0  0  0  0  0  0  0  0  0  0
   15.3968    0.3466    3.2078 H   0  0  0  0  0  0  0  0  0  0  0  0
   15.7707    1.4958    1.9502 H   0  0  0  0  0  0  0  0  0  0  0  0
   13.3895    0.5722    1.9424 H   0  0  0  0  0  0  0  0  0  0  0  0
   13.5491    3.6103    2.2525 H   0  0  0  0  0  0  0  0  0  0  0  0
   12.2610    2.7214    1.4583 H   0  0  0  0  0  0  0  0  0  0  0  0
   15.1634    2.8993    0.5012 H   0  0  0  0  0  0  0  0  0  0  0  0
   13.7817    3.6848   -0.1850 H   0  0  0  0  0  0  0  0  0  0  0  0
   12.7902    1.5122   -0.8609 H   0  0  0  0  0  0  0  0  0  0  0  0
   14.1258    0.6338   -0.0985 H   0  0  0  0  0  0  0  0  0  0  0  0
   14.7574    2.6121   -1.9745 H   0  0  0  0  0  0  0  0  0  0  0  0
   11.9007   -1.1267    3.9479 H   0  0  0  0  0  0  0  0  0  0  0  0
    8.6190   -0.6664    3.6786 H   0  0  0  0  0  0  0  0  0  0  0  0
  1  2  1  0  0  0  0
  1 28  1  0  0  0  0
  1 29  1  0  0  0  0
  1 30  1  0  0  0  0
  2  3  1  0  0  0  0
  2 31  1  0  0  0  0
  2 32  1  0  0  0  0
  3  4  1  0  0  0  0
  3 33  1  0  0  0  0
  3 34  1  0  0  0  0
  4  5  1  0  0  0  0
  4 35  1  0  0  0  0
  4 36  1  0  0  0  0
  5  6  1  0  0  0  0
  5 37  1  0  0  0  0
  5 38  1  0  0  0  0
  6  7  1  0  0  0  0
  6 39  1  0  0  0  0
  6 40  1  0  0  0  0
  7  8  1  0  0  0  0
  7  9  1  0  0  0  0
  7 10  1  0  0  0  0
  8 41  1  0  0  0  0
  8 42  1  0  0  0  0
  8 43  1  0  0  0  0
  9 44  1  0  0  0  0
  9 45  1  0  0  0  0
  9 46  1  0  0  0  0
 10 27  2  0  0  0  0
 10 11  1  0  0  0  0
 11 12  2  0  0  0  0
 11 47  1  0  0  0  0
 12 13  1  0  0  0  0
 12 48  1  0  0  0  0
 13 14  1  0  0  0  0
 13 25  2  0  0  0  0
 14 20  1  0  0  0  0
 14 15  1  0  0  0  0
 14 49  1  0  0  0  0
 15 16  1  0  0  0  0
 15 50  1  0  0  0  0
 15 51  1  0  0  0  0
 16 17  1  0  0  0  0
 16 18  1  0  0  0  0
 16 52  1  0  0  0  0
 17 53  1  0  0  0  0
 18 19  1  0  0  0  0
 18 54  1  0  0  0  0
 18 55  1  0  0  0  0
 19 20  1  0  0  0  0
 19 56  1  0  0  0  0
 19 57  1  0  0  0  0
 20 21  1  0  0  0  0
 20 58  1  0  0  0  0
 21 22  1  0  0  0  0
 21 59  1  0  0  0  0
 21 60  1  0  0  0  0
 22 23  1  0  0  0  0
 22 61  1  0  0  0  0
 22 62  1  0  0  0  0
 23 24  1  0  0  0  0
 23 63  1  0  0  0  0
 23 64  1  0  0  0  0
 24 65  1  0  0  0  0
 25 26  1  0  0  0  0
 25 27  1  0  0  0  0
 26 66  1  0  0  0  0
 27 67  1  0  0  0  0
M  END
$$$$
CHEMBL2062131	8GUR	best_smi
 OpenBabel12022418133D

 67 68  0  0  1  0  0  0  0  0999 V2000
   15.9871   -3.7572  -13.2045 C   0  0  0  0  0  0  0  0  0  0  0  0
   15.3034   -2.7031  -12.3505 C   0  0  0  0  0  0  0  0  0  0  0  0
   15.7136   -2.8629  -10.8928 C   0  0  0  0  0  0  0  0  0  0  0  0
   15.0418   -1.8305   -9.9961 C   0  0  0  0  0  0  0  0  0  0  0  0
   15.4835   -2.0556   -8.5518 C   0  0  0  0  0  0  0  0  0  0  0  0
   14.8246   -1.0460   -7.6214 C   0  0  0  0  0  0  0  0  0  0  0  0
   15.2363   -1.1531   -6.1249 C   0  0  0  0  0  0  0  0  0  0  0  0
   14.8760   -2.5517   -5.5754 C   0  0  0  0  0  0  0  0  0  0  0  0
   16.7652   -0.9829   -5.9463 C   0  0  0  0  0  0  0  0  0  0  0  0
   14.5185   -0.0080   -5.3867 C   0  0  0  0  0  0  0  0  0  0  0  0
   13.5642   -0.2163   -4.3898 C   0  0  0  0  0  0  0  0  0  0  0  0
   13.0144    0.8701   -3.6987 C   0  0  0  0  0  0  0  0  0  0  0  0
   13.3960    2.2037   -3.9622 C   0  0  0  0  0  0  0  0  0  0  0  0
   13.0124    3.2451   -2.9006 C   0  0  1  0  0  0  0  0  0  0  0  0
   13.5740    2.8188   -1.5052 C   0  0  0  0  0  0  0  0  0  0  0  0
   15.0687    3.1016   -1.3072 C   0  0  1  0  0  0  0  0  0  0  0  0
   15.8757    2.1681   -2.0246 O   0  0  0  0  0  0  0  0  0  0  0  0
   15.4621    4.5299   -1.6728 C   0  0  0  0  0  0  0  0  0  0  0  0
   14.9001    4.9650   -3.0197 C   0  0  0  0  0  0  0  0  0  0  0  0
   13.3754    4.7408   -3.1465 C   0  0  2  0  0  0  0  0  0  0  0  0
   12.5738    5.6822   -2.2019 C   0  0  0  0  0  0  0  0  0  0  0  0
   12.8241    7.1640   -2.4948 C   0  0  0  0  0  0  0  0  0  0  0  0
   12.0545    8.0800   -1.5556 C   0  0  0  0  0  0  0  0  0  0  0  0
   12.3746    9.4329   -1.8533 O   0  0  0  0  0  0  0  0  0  0  0  0
   14.1999    2.3938   -5.0886 C   0  0  0  0  0  0  0  0  0  0  0  0
   14.5087    3.5980   -5.6436 O   0  0  0  0  0  0  0  0  0  0  0  0
   14.7914    1.3161   -5.7439 C   0  0  0  0  0  0  0  0  0  0  0  0
   15.6948   -3.6499  -14.2525 H   0  0  0  0  0  0  0  0  0  0  0  0
   15.7126   -4.7638  -12.8725 H   0  0  0  0  0  0  0  0  0  0  0  0
   17.0762   -3.6624  -13.1398 H   0  0  0  0  0  0  0  0  0  0  0  0
   14.2162   -2.8006  -12.4474 H   0  0  0  0  0  0  0  0  0  0  0  0
   15.5763   -1.7045  -12.7102 H   0  0  0  0  0  0  0  0  0  0  0  0
   16.8024   -2.7666  -10.8047 H   0  0  0  0  0  0  0  0  0  0  0  0
   15.4505   -3.8700  -10.5459 H   0  0  0  0  0  0  0  0  0  0  0  0
   13.9514   -1.9141  -10.0720 H   0  0  0  0  0  0  0  0  0  0  0  0
   15.3145   -0.8181  -10.3191 H   0  0  0  0  0  0  0  0  0  0  0  0
   16.5730   -1.9623   -8.4970 H   0  0  0  0  0  0  0  0  0  0  0  0
   15.2207   -3.0749   -8.2524 H   0  0  0  0  0  0  0  0  0  0  0  0
   13.7332   -1.1433   -7.7015 H   0  0  0  0  0  0  0  0  0  0  0  0
   15.0621   -0.0475   -8.0118 H   0  0  0  0  0  0  0  0  0  0  0  0
   15.4650   -3.3410   -6.0549 H   0  0  0  0  0  0  0  0  0  0  0  0
   13.8176   -2.7877   -5.7385 H   0  0  0  0  0  0  0  0  0  0  0  0
   15.0787   -2.6249   -4.5002 H   0  0  0  0  0  0  0  0  0  0  0  0
   17.3177   -1.8361   -6.3550 H   0  0  0  0  0  0  0  0  0  0  0  0
   17.0329   -0.9056   -4.8852 H   0  0  0  0  0  0  0  0  0  0  0  0
   17.1440   -0.0853   -6.4471 H   0  0  0  0  0  0  0  0  0  0  0  0
   13.2546   -1.2118   -4.0895 H   0  0  0  0  0  0  0  0  0  0  0  0
   12.3195    0.6497   -2.8917 H   0  0  0  0  0  0  0  0  0  0  0  0
   11.9150    3.1859   -2.8423 H   0  0  0  0  0  0  0  0  0  0  0  0
   13.3874    1.7587   -1.3032 H   0  0  0  0  0  0  0  0  0  0  0  0
   13.0190    3.3591   -0.7290 H   0  0  0  0  0  0  0  0  0  0  0  0
   15.3114    2.9391   -0.2519 H   0  0  0  0  0  0  0  0  0  0  0  0
   15.7071    2.2663   -2.9770 H   0  0  0  0  0  0  0  0  0  0  0  0
   16.5549    4.6141   -1.7155 H   0  0  0  0  0  0  0  0  0  0  0  0
   15.1139    5.2178   -0.8954 H   0  0  0  0  0  0  0  0  0  0  0  0
   15.4475    4.4119   -3.7820 H   0  0  0  0  0  0  0  0  0  0  0  0
   15.1606    6.0081   -3.2160 H   0  0  0  0  0  0  0  0  0  0  0  0
   13.0477    5.0235   -4.1510 H   0  0  0  0  0  0  0  0  0  0  0  0
   12.8135    5.4855   -1.1517 H   0  0  0  0  0  0  0  0  0  0  0  0
   11.5016    5.4757   -2.3189 H   0  0  0  0  0  0  0  0  0  0  0  0
   12.5587    7.3938   -3.5338 H   0  0  0  0  0  0  0  0  0  0  0  0
   13.8863    7.4064   -2.3935 H   0  0  0  0  0  0  0  0  0  0  0  0
   12.3146    7.8860   -0.5103 H   0  0  0  0  0  0  0  0  0  0  0  0
   10.9751    7.9501   -1.6759 H   0  0  0  0  0  0  0  0  0  0  0  0
   13.3364    9.5387   -1.7468 H   0  0  0  0  0  0  0  0  0  0  0  0
   13.6980    4.1260   -5.6638 H   0  0  0  0  0  0  0  0  0  0  0  0
   15.4831    1.5385   -6.5536 H   0  0  0  0  0  0  0  0  0  0  0  0
  1  2  1  0  0  0  0
  1 28  1  0  0  0  0
  1 29  1  0  0  0  0
  1 30  1  0  0  0  0
  2  3  1  0  0  0  0
  2 31  1  0  0  0  0
  2 32  1  0  0  0  0
  3  4  1  0  0  0  0
  3 33  1  0  0  0  0
  3 34  1  0  0  0  0
  4  5  1  0  0  0  0
  4 35  1  0  0  0  0
  4 36  1  0  0  0  0
  5  6  1  0  0  0  0
  5 37  1  0  0  0  0
  5 38  1  0  0  0  0
  6  7  1  0  0  0  0
  6 39  1  0  0  0  0
  6 40  1  0  0  0  0
  7  8  1  0  0  0  0
  7  9  1  0  0  0  0
  7 10  1  0  0  0  0
  8 41  1  0  0  0  0
  8 42  1  0  0  0  0
  8 43  1  0  0  0  0
  9 44  1  0  0  0  0
  9 45  1  0  0  0  0
  9 46  1  0  0  0  0
 10 27  2  0  0  0  0
 10 11  1  0  0  0  0
 11 12  2  0  0  0  0
 11 47  1  0  0  0  0
 12 13  1  0  0  0  0
 12 48  1  0  0  0  0
 13 25  2  0  0  0  0
 14 15  1  0  0  0  0
 14 20  1  0  0  0  0
 14 13  1  0  0  0  0
 14 49  1  1  0  0  0
 15 16  1  0  0  0  0
 15 50  1  0  0  0  0
 15 51  1  0  0  0  0
 16 18  1  0  0  0  0
 16 17  1  0  0  0  0
 16 52  1  1  0  0  0
 17 53  1  0  0  0  0
 18 19  1  0  0  0  0
 18 54  1  0  0  0  0
 18 55  1  0  0  0  0
 19 20  1  0  0  0  0
 19 56  1  0  0  0  0
 19 57  1  0  0  0  0
 20 21  1  0  0  0  0
 20 58  1  6  0  0  0
 21 22  1  0  0  0  0
 21 59  1  0  0  0  0
 21 60  1  0  0  0  0
 22 23  1  0  0  0  0
 22 61  1  0  0  0  0
 22 62  1  0  0  0  0
 23 24  1  0  0  0  0
 23 63  1  0  0  0  0
 23 64  1  0  0  0  0
 24 65  1  0  0  0  0
 25 26  1  0  0  0  0
 25 27  1  0  0  0  0
 26 66  1  0  0  0  0
 27 67  1  0  0  0  0
M  END
$$$$
